<?xml version="1.0" encoding="UTF-8"?>

<!-- generated on 2023-05-15 21:53:38 by Eclipse SUMO netedit Version 1.16.0
<configuration xmlns:xsi="http://www.w3.org/2001/XMLSchema-instance" xsi:noNamespaceSchemaLocation="http://sumo.dlr.de/xsd/netconvertConfiguration.xsd">

    <input>
        <sumo-net-file value="C:\Users\user\Desktop\bbb\Okul\Sumo\bin\eskisehir\eskisehir13.net.xml"/>
    </input>

    <output>
        <output-file value="C:\Users\user\Desktop\bbb\Okul\Sumo\bin\eskisehir\eskisehir13.net.xml"/>
    </output>

    <processing>
        <geometry.min-radius.fix.railways value="false"/>
        <geometry.max-grade.fix value="false"/>
        <offset.disable-normalization value="true"/>
        <lefthand value="0"/>
    </processing>

    <junctions>
        <no-turnarounds value="true"/>
        <junctions.corner-detail value="5"/>
        <junctions.limit-turn-speed value="5.50"/>
        <rectangular-lane-cut value="0"/>
    </junctions>

    <pedestrian>
        <walkingareas value="0"/>
    </pedestrian>

</configuration>
-->

<net version="1.16" junctionCornerDetail="5" limitTurnSpeed="5.50" xmlns:xsi="http://www.w3.org/2001/XMLSchema-instance" xsi:noNamespaceSchemaLocation="http://sumo.dlr.de/xsd/net_file.xsd">

    <location netOffset="-278956.86,-4400294.47" convBoundary="0.00,0.00,8070.72,4782.72" origBoundary="30.420349,39.725431,30.514297,39.768309" projParameter="+proj=utm +zone=36 +ellps=WGS84 +datum=WGS84 +units=m +no_defs"/>

    <type id="highway.bridleway" priority="1" numLanes="1" speed="2.78" allow="pedestrian" oneway="1" width="2.00"/>
    <type id="highway.bus_guideway" priority="1" numLanes="1" speed="27.78" allow="bus" oneway="1"/>
    <type id="highway.cycleway" priority="1" numLanes="1" speed="5.56" allow="bicycle" oneway="0" width="1.00"/>
    <type id="highway.footway" priority="1" numLanes="1" speed="2.78" allow="pedestrian" oneway="1" width="2.00"/>
    <type id="highway.ford" priority="1" numLanes="1" speed="2.78" allow="army" oneway="0"/>
    <type id="highway.living_street" priority="2" numLanes="1" speed="2.78" disallow="tram rail_urban rail rail_electric rail_fast ship" oneway="0"/>
    <type id="highway.motorway" priority="14" numLanes="2" speed="39.44" allow="private emergency authority army vip passenger hov taxi bus coach delivery truck trailer motorcycle evehicle custom1 custom2" oneway="1"/>
    <type id="highway.motorway_link" priority="9" numLanes="1" speed="22.22" allow="private emergency authority army vip passenger hov taxi bus coach delivery truck trailer motorcycle evehicle custom1 custom2" oneway="1"/>
    <type id="highway.path" priority="1" numLanes="1" speed="5.56" allow="pedestrian bicycle" oneway="0" width="2.00"/>
    <type id="highway.pedestrian" priority="1" numLanes="1" speed="2.78" allow="pedestrian" oneway="1" width="2.00"/>
    <type id="highway.primary" priority="12" numLanes="2" speed="27.78" disallow="tram rail_urban rail rail_electric rail_fast ship" oneway="0"/>
    <type id="highway.primary_link" priority="7" numLanes="1" speed="22.22" disallow="tram rail_urban rail rail_electric rail_fast ship" oneway="0"/>
    <type id="highway.raceway" priority="15" numLanes="2" speed="83.33" allow="vip" oneway="0"/>
    <type id="highway.residential" priority="3" numLanes="1" speed="13.89" disallow="tram rail_urban rail rail_electric rail_fast ship" oneway="0"/>
    <type id="highway.secondary" priority="11" numLanes="1" speed="27.78" disallow="tram rail_urban rail rail_electric rail_fast ship" oneway="0"/>
    <type id="highway.secondary_link" priority="6" numLanes="1" speed="22.22" disallow="tram rail_urban rail rail_electric rail_fast ship" oneway="0"/>
    <type id="highway.service" priority="1" numLanes="1" speed="5.56" allow="pedestrian delivery bicycle" oneway="0"/>
    <type id="highway.stairs" priority="1" numLanes="1" speed="1.39" allow="pedestrian" oneway="1" width="2.00"/>
    <type id="highway.step" priority="1" numLanes="1" speed="1.39" allow="pedestrian" oneway="1" width="2.00"/>
    <type id="highway.steps" priority="1" numLanes="1" speed="1.39" allow="pedestrian" oneway="1" width="2.00"/>
    <type id="highway.tertiary" priority="10" numLanes="1" speed="22.22" disallow="tram rail_urban rail rail_electric rail_fast ship" oneway="0"/>
    <type id="highway.tertiary_link" priority="5" numLanes="1" speed="22.22" disallow="tram rail_urban rail rail_electric rail_fast ship" oneway="0"/>
    <type id="highway.track" priority="1" numLanes="1" speed="5.56" allow="pedestrian motorcycle moped bicycle" oneway="0"/>
    <type id="highway.trunk" priority="13" numLanes="2" speed="27.78" disallow="pedestrian bicycle tram rail_urban rail rail_electric rail_fast ship" oneway="0"/>
    <type id="highway.trunk_link" priority="8" numLanes="1" speed="22.22" disallow="pedestrian bicycle tram rail_urban rail rail_electric rail_fast ship" oneway="0"/>
    <type id="highway.unclassified" priority="4" numLanes="1" speed="13.89" disallow="tram rail_urban rail rail_electric rail_fast ship" oneway="0"/>
    <type id="highway.unsurfaced" priority="1" numLanes="1" speed="8.33" disallow="tram rail_urban rail rail_electric rail_fast ship" oneway="0"/>
    <type id="railway.highspeed" priority="21" numLanes="1" speed="69.44" allow="rail_fast" oneway="1"/>
    <type id="railway.light_rail" priority="19" numLanes="1" speed="27.78" allow="rail_urban" oneway="1"/>
    <type id="railway.preserved" priority="16" numLanes="1" speed="27.78" allow="rail" oneway="1"/>
    <type id="railway.rail" priority="20" numLanes="1" speed="44.44" allow="rail" oneway="1"/>
    <type id="railway.subway" priority="18" numLanes="1" speed="27.78" allow="rail_urban" oneway="1"/>
    <type id="railway.tram" priority="17" numLanes="1" speed="13.89" allow="tram" oneway="1"/>

    <edge id=":1375605856_0" function="internal">
        <lane id=":1375605856_0_0" index="0" disallow="tram rail_urban rail rail_electric rail_fast ship" speed="3.65" length="4.67" shape="3289.14,1671.49 3287.76,1671.05 3287.15,1670.40 3287.31,1669.52 3288.24,1668.41"/>
    </edge>
    <edge id=":1375692169_0" function="internal">
        <lane id=":1375692169_0_0" index="0" disallow="pedestrian bicycle tram rail_urban rail rail_electric rail_fast ship" speed="5.85" length="9.12" shape="3985.60,2673.74 3983.17,2672.65 3981.27,2672.77 3979.89,2674.09 3979.04,2676.61"/>
    </edge>
    <edge id=":1375692169_1" function="internal">
        <lane id=":1375692169_1_0" index="0" disallow="pedestrian bicycle tram rail_urban rail rail_electric rail_fast ship" speed="22.78" length="15.27" shape="3985.60,2673.74 3981.83,2671.37 3979.20,2669.81 3976.46,2668.47 3972.37,2666.72"/>
        <lane id=":1375692169_1_1" index="1" disallow="pedestrian bicycle tram rail_urban rail rail_electric rail_fast ship" speed="22.78" length="15.27" shape="3987.29,2671.03 3983.39,2668.57 3980.67,2666.97 3977.84,2665.57 3973.60,2663.76"/>
    </edge>
    <edge id=":1375692169_3" function="internal">
        <lane id=":1375692169_3_0" index="0" disallow="pedestrian bicycle tram rail_urban rail rail_electric rail_fast ship" speed="7.65" length="10.84" shape="3975.90,2676.01 3976.19,2672.71 3975.70,2670.06 3974.43,2668.06 3972.37,2666.72"/>
    </edge>
    <edge id=":1375692169_4" function="internal">
        <lane id=":1375692169_4_0" index="0" disallow="tram rail_urban rail rail_electric rail_fast ship" speed="3.65" length="4.67" shape="3975.90,2676.01 3976.91,2674.98 3977.77,2674.74 3978.48,2675.28 3979.04,2676.61"/>
    </edge>
    <edge id=":1375692187_0" function="internal">
        <lane id=":1375692187_0_0" index="0" disallow="pedestrian bicycle tram rail_urban rail rail_electric rail_fast ship" speed="6.66" length="9.06" shape="4447.26,3273.80 4445.06,3272.76 4443.01,3272.65 4441.10,3273.47 4439.34,3275.24"/>
    </edge>
    <edge id=":1375692187_1" function="internal">
        <lane id=":1375692187_1_0" index="0" disallow="pedestrian bicycle tram rail_urban rail rail_electric rail_fast ship" speed="22.78" length="14.05" shape="4447.26,3273.80 4435.78,3265.50"/>
        <lane id=":1375692187_1_1" index="1" disallow="pedestrian bicycle tram rail_urban rail rail_electric rail_fast ship" speed="22.78" length="14.05" shape="4449.04,3271.14 4437.74,3262.98"/>
    </edge>
    <edge id=":1375692187_3" function="internal">
        <lane id=":1375692187_3_0" index="0" disallow="pedestrian bicycle tram rail_urban rail rail_electric rail_fast ship" speed="6.51" length="8.94" shape="4436.79,3273.30 4437.98,3271.16 4438.21,3269.15 4437.47,3267.26 4435.78,3265.50"/>
    </edge>
    <edge id=":1375692187_4" function="internal">
        <lane id=":1375692187_4_0" index="0" disallow="tram rail_urban rail rail_electric rail_fast ship" speed="3.65" length="4.67" shape="4436.79,3273.30 4438.15,3272.83 4439.03,3272.99 4439.43,3273.80 4439.34,3275.24"/>
    </edge>
    <edge id=":1753785726_0" function="internal">
        <lane id=":1753785726_0_0" index="0" allow="tram" speed="13.89" length="0.31" shape="6379.62,3100.45 6379.76,3100.72"/>
    </edge>
    <edge id=":2225271041_0" function="internal">
        <lane id=":2225271041_0_0" index="0" disallow="tram rail_urban rail rail_electric rail_fast ship" speed="6.46" length="9.03" shape="6421.17,3128.93 6418.80,3128.18 6416.78,3128.38 6415.10,3129.52 6413.76,3131.62"/>
    </edge>
    <edge id=":2225271041_1" function="internal">
        <lane id=":2225271041_1_0" index="0" disallow="tram rail_urban rail rail_electric rail_fast ship" speed="27.78" length="14.39" shape="6421.17,3128.93 6408.24,3122.62"/>
    </edge>
    <edge id=":2225271041_2" function="internal">
        <lane id=":2225271041_2_0" index="0" disallow="tram rail_urban rail rail_electric rail_fast ship" speed="6.63" length="9.17" shape="6410.85,3130.29 6411.57,3127.86 6411.38,3125.77 6410.27,3124.02 6408.24,3122.62"/>
    </edge>
    <edge id=":2225271041_3" function="internal">
        <lane id=":2225271041_3_0" index="0" disallow="tram rail_urban rail rail_electric rail_fast ship" speed="3.65" length="4.67" shape="6410.85,3130.29 6412.07,3129.53 6412.96,3129.50 6413.53,3130.19 6413.76,3131.62"/>
    </edge>
    <edge id=":2225271080_0" function="internal">
        <lane id=":2225271080_0_0" index="0" disallow="tram rail_urban rail rail_electric rail_fast ship" speed="3.65" length="4.67" shape="6308.57,3268.42 6307.29,3269.10 6306.40,3269.07 6305.88,3268.33 6305.75,3266.90"/>
    </edge>
    <edge id=":2225271096_0" function="internal">
        <lane id=":2225271096_0_0" index="0" disallow="tram rail_urban rail rail_electric rail_fast ship" speed="3.65" length="4.67" shape="6346.91,3283.96 6345.70,3284.75 6344.81,3284.80 6344.23,3284.12 6343.97,3282.70"/>
    </edge>
    <edge id=":2225294551_0" function="internal">
        <lane id=":2225294551_0_0" index="0" disallow="tram rail_urban rail rail_electric rail_fast ship" speed="6.07" length="7.36" shape="4324.18,2458.37 4322.69,2458.76 4321.59,2459.81 4320.90,2461.55 4320.61,2463.96"/>
    </edge>
    <edge id=":2225294551_1" function="internal">
        <lane id=":2225294551_1_0" index="0" disallow="tram rail_urban rail rail_electric rail_fast ship" speed="7.37" length="12.53" shape="4324.18,2458.37 4321.31,2457.88 4319.33,2456.22 4318.22,2453.39 4317.99,2449.40"/>
    </edge>
    <edge id=":2225294551_2" function="internal">
        <lane id=":2225294551_2_0" index="0" disallow="tram rail_urban rail rail_electric rail_fast ship" speed="3.65" length="4.67" shape="4324.18,2458.37 4322.96,2457.61 4322.53,2456.82 4322.91,2456.01 4324.09,2455.18"/>
    </edge>
    <edge id=":2225294551_3" function="internal">
        <lane id=":2225294551_3_0" index="0" disallow="tram rail_urban rail rail_electric rail_fast ship" speed="5.74" length="7.15" shape="4321.19,2449.54 4321.27,2452.04 4321.78,2453.81 4322.72,2454.85 4324.09,2455.18"/>
    </edge>
    <edge id=":2225294551_4" function="internal">
        <lane id=":2225294551_4_0" index="0" disallow="tram rail_urban rail rail_electric rail_fast ship" speed="13.89" length="14.43" shape="4321.19,2449.54 4320.61,2463.96"/>
    </edge>
    <edge id=":2225294551_5" function="internal">
        <lane id=":2225294551_5_0" index="0" disallow="tram rail_urban rail rail_electric rail_fast ship" speed="3.65" length="1.44" shape="4321.19,2449.54 4320.33,2450.71"/>
    </edge>
    <edge id=":2225294551_9" function="internal">
        <lane id=":2225294551_9_0" index="0" disallow="tram rail_urban rail rail_electric rail_fast ship" speed="3.65" length="3.23" shape="4320.33,2450.71 4319.52,2451.07 4318.73,2450.63 4317.99,2449.40"/>
    </edge>
    <edge id=":2225294551_6" function="internal">
        <lane id=":2225294551_6_0" index="0" disallow="tram rail_urban rail rail_electric rail_fast ship" speed="13.89" length="14.47" shape="4317.41,2463.85 4317.99,2449.40"/>
    </edge>
    <edge id=":2225294551_7" function="internal">
        <lane id=":2225294551_7_0" index="0" disallow="tram rail_urban rail rail_electric rail_fast ship" speed="7.64" length="4.49" shape="4317.41,2463.85 4317.94,2460.12 4318.25,2459.47"/>
    </edge>
    <edge id=":2225294551_8" function="internal">
        <lane id=":2225294551_8_0" index="0" disallow="tram rail_urban rail rail_electric rail_fast ship" speed="3.65" length="1.44" shape="4317.41,2463.85 4318.25,2462.68"/>
    </edge>
    <edge id=":2225294551_10" function="internal">
        <lane id=":2225294551_10_0" index="0" disallow="tram rail_urban rail rail_electric rail_fast ship" speed="7.64" length="7.77" shape="4318.25,2459.47 4319.23,2457.43 4321.28,2455.78 4324.09,2455.18"/>
    </edge>
    <edge id=":2225294551_11" function="internal">
        <lane id=":2225294551_11_0" index="0" disallow="tram rail_urban rail rail_electric rail_fast ship" speed="3.65" length="3.23" shape="4318.25,2462.68 4319.06,2462.31 4319.85,2462.74 4320.61,2463.96"/>
    </edge>
    <edge id=":2225294552_0" function="internal">
        <lane id=":2225294552_0_0" index="0" disallow="tram rail_urban rail rail_electric rail_fast ship" speed="6.48" length="9.03" shape="4692.15,2452.26 4691.75,2449.81 4690.67,2448.09 4688.90,2447.09 4686.43,2446.80"/>
    </edge>
    <edge id=":2225294552_1" function="internal">
        <lane id=":2225294552_1_0" index="0" disallow="tram rail_urban rail rail_electric rail_fast ship" speed="8.00" length="14.22" shape="4692.15,2452.26 4692.63,2448.39 4694.23,2445.60 4696.96,2443.90 4700.80,2443.28"/>
    </edge>
    <edge id=":2225294552_2" function="internal">
        <lane id=":2225294552_2_0" index="0" disallow="tram rail_urban rail rail_electric rail_fast ship" speed="6.51" length="9.05" shape="4700.85,2446.48 4698.41,2446.87 4696.67,2447.96 4695.66,2449.73 4695.35,2452.20"/>
    </edge>
    <edge id=":2225294552_3" function="internal">
        <lane id=":2225294552_3_0" index="0" disallow="tram rail_urban rail rail_electric rail_fast ship" speed="13.89" length="14.42" shape="4700.85,2446.48 4686.43,2446.80"/>
    </edge>
    <edge id=":2225294552_4" function="internal">
        <lane id=":2225294552_4_0" index="0" disallow="tram rail_urban rail rail_electric rail_fast ship" speed="13.89" length="14.46" shape="4686.34,2443.61 4700.80,2443.28"/>
    </edge>
    <edge id=":2225294552_5" function="internal">
        <lane id=":2225294552_5_0" index="0" disallow="tram rail_urban rail rail_electric rail_fast ship" speed="7.98" length="4.12" shape="4686.34,2443.61 4690.22,2444.05 4690.41,2444.15"/>
    </edge>
    <edge id=":2225294552_6" function="internal">
        <lane id=":2225294552_6_0" index="0" disallow="tram rail_urban rail rail_electric rail_fast ship" speed="7.98" length="10.11" shape="4690.41,2444.15 4693.02,2445.63 4694.73,2448.35 4695.35,2452.20"/>
    </edge>
    <edge id=":2225294554_0" function="internal">
        <lane id=":2225294554_0_0" index="0" disallow="tram rail_urban rail rail_electric rail_fast ship" speed="6.55" length="9.05" shape="4818.43,2450.18 4818.00,2447.73 4816.90,2446.00 4815.13,2444.98 4812.68,2444.67"/>
    </edge>
    <edge id=":2225294554_1" function="internal">
        <lane id=":2225294554_1_0" index="0" disallow="tram rail_urban rail rail_electric rail_fast ship" speed="8.00" length="14.17" shape="4818.43,2450.18 4818.85,2446.32 4820.41,2443.52 4823.10,2441.79 4826.93,2441.11"/>
    </edge>
    <edge id=":2225294554_2" function="internal">
        <lane id=":2225294554_2_0" index="0" disallow="tram rail_urban rail rail_electric rail_fast ship" speed="6.51" length="9.02" shape="4827.03,2444.31 4824.60,2444.74 4822.89,2445.84 4821.90,2447.63 4821.63,2450.08"/>
    </edge>
    <edge id=":2225294554_3" function="internal">
        <lane id=":2225294554_3_0" index="0" disallow="tram rail_urban rail rail_electric rail_fast ship" speed="13.89" length="14.35" shape="4827.03,2444.31 4812.68,2444.67"/>
    </edge>
    <edge id=":2225294554_4" function="internal">
        <lane id=":2225294554_4_0" index="0" disallow="tram rail_urban rail rail_electric rail_fast ship" speed="3.65" length="1.44" shape="4827.03,2444.31 4825.81,2443.55"/>
    </edge>
    <edge id=":2225294554_7" function="internal">
        <lane id=":2225294554_7_0" index="0" disallow="tram rail_urban rail rail_electric rail_fast ship" speed="3.65" length="3.23" shape="4825.81,2443.55 4825.38,2442.76 4825.75,2441.95 4826.93,2441.11"/>
    </edge>
    <edge id=":2225294554_5" function="internal">
        <lane id=":2225294554_5_0" index="0" disallow="tram rail_urban rail rail_electric rail_fast ship" speed="13.89" length="14.30" shape="4812.63,2441.47 4826.93,2441.11"/>
    </edge>
    <edge id=":2225294554_6" function="internal">
        <lane id=":2225294554_6_0" index="0" disallow="tram rail_urban rail rail_electric rail_fast ship" speed="8.04" length="3.98" shape="4812.63,2441.47 4816.46,2441.95 4816.57,2442.01"/>
    </edge>
    <edge id=":2225294554_8" function="internal">
        <lane id=":2225294554_8_0" index="0" disallow="tram rail_urban rail rail_electric rail_fast ship" speed="8.04" length="10.17" shape="4816.57,2442.01 4819.24,2443.55 4820.96,2446.26 4821.63,2450.08"/>
    </edge>
    <edge id=":2225294561_0" function="internal">
        <lane id=":2225294561_0_0" index="0" allow="pedestrian delivery bicycle" speed="5.42" length="5.49" shape="4860.25,2473.93 4860.01,2472.31 4859.42,2471.13 4858.47,2470.39 4857.18,2470.08"/>
    </edge>
    <edge id=":2225294561_1" function="internal">
        <lane id=":2225294561_1_0" index="0" allow="pedestrian delivery bicycle" speed="5.56" length="10.77" shape="4860.25,2473.93 4860.57,2470.94 4861.78,2468.89 4863.88,2467.77 4866.88,2467.58"/>
    </edge>
    <edge id=":2225294561_2" function="internal">
        <lane id=":2225294561_2_0" index="0" allow="pedestrian delivery bicycle" speed="3.65" length="4.67" shape="4860.25,2473.93 4861.01,2472.70 4861.79,2472.27 4862.61,2472.64 4863.45,2473.80"/>
    </edge>
    <edge id=":2225294561_3" function="internal">
        <lane id=":2225294561_3_0" index="0" allow="pedestrian delivery bicycle" speed="4.92" length="5.15" shape="4866.62,2470.77 4865.19,2470.86 4864.18,2471.40 4863.60,2472.38 4863.45,2473.80"/>
    </edge>
    <edge id=":2225294561_4" function="internal">
        <lane id=":2225294561_4_0" index="0" allow="pedestrian delivery bicycle" speed="5.56" length="9.47" shape="4866.62,2470.77 4857.18,2470.08"/>
    </edge>
    <edge id=":2225294561_5" function="internal">
        <lane id=":2225294561_5_0" index="0" allow="pedestrian delivery bicycle" speed="3.65" length="4.67" shape="4866.62,2470.77 4865.49,2469.88 4865.16,2469.05 4865.62,2468.28 4866.88,2467.58"/>
    </edge>
    <edge id=":2225294561_6" function="internal">
        <lane id=":2225294561_6_0" index="0" allow="pedestrian delivery bicycle" speed="5.56" length="9.53" shape="4857.38,2466.88 4866.88,2467.58"/>
    </edge>
    <edge id=":2225294561_7" function="internal">
        <lane id=":2225294561_7_0" index="0" allow="pedestrian delivery bicycle" speed="5.56" length="10.27" shape="4857.38,2466.88 4859.94,2467.46 4861.81,2468.80 4862.98,2470.92 4863.45,2473.80"/>
    </edge>
    <edge id=":2225294561_8" function="internal">
        <lane id=":2225294561_8_0" index="0" allow="pedestrian delivery bicycle" speed="3.65" length="4.67" shape="4857.38,2466.88 4858.53,2467.76 4858.88,2468.58 4858.43,2469.35 4857.18,2470.08"/>
    </edge>
    <edge id=":2225294602_0" function="internal">
        <lane id=":2225294602_0_0" index="0" allow="pedestrian delivery bicycle" speed="5.56" length="9.17" shape="4873.81,2683.03 4864.64,2683.13"/>
    </edge>
    <edge id=":2225294602_1" function="internal">
        <lane id=":2225294602_1_0" index="0" allow="pedestrian delivery bicycle" speed="5.56" length="10.05" shape="4873.81,2683.03 4871.14,2682.61 4869.20,2681.41 4867.99,2679.46 4867.52,2676.73"/>
    </edge>
    <edge id=":2225294602_2" function="internal">
        <lane id=":2225294602_2_0" index="0" allow="pedestrian delivery bicycle" speed="3.65" length="4.67" shape="4873.81,2683.03 4872.62,2682.22 4872.23,2681.41 4872.64,2680.62 4873.85,2679.83"/>
    </edge>
    <edge id=":2225294602_3" function="internal">
        <lane id=":2225294602_3_0" index="0" allow="pedestrian delivery bicycle" speed="5.14" length="5.06" shape="4870.72,2676.62 4870.96,2678.01 4871.56,2679.01 4872.52,2679.62 4873.85,2679.83"/>
    </edge>
    <edge id=":2225294602_4" function="internal">
        <lane id=":2225294602_4_0" index="0" allow="pedestrian delivery bicycle" speed="5.56" length="10.16" shape="4870.72,2676.62 4870.42,2679.39 4869.31,2681.40 4867.38,2682.64 4864.64,2683.13"/>
    </edge>
    <edge id=":2225294602_5" function="internal">
        <lane id=":2225294602_5_0" index="0" allow="pedestrian delivery bicycle" speed="3.65" length="4.67" shape="4870.72,2676.62 4869.96,2677.85 4869.18,2678.27 4868.36,2677.90 4867.52,2676.73"/>
    </edge>
    <edge id=":2225294602_6" function="internal">
        <lane id=":2225294602_6_0" index="0" allow="pedestrian delivery bicycle" speed="5.04" length="5.00" shape="4864.53,2679.93 4865.88,2679.69 4866.83,2679.08 4867.38,2678.09 4867.52,2676.73"/>
    </edge>
    <edge id=":2225294602_7" function="internal">
        <lane id=":2225294602_7_0" index="0" allow="pedestrian delivery bicycle" speed="5.56" length="9.32" shape="4864.53,2679.93 4873.85,2679.83"/>
    </edge>
    <edge id=":2225294602_8" function="internal">
        <lane id=":2225294602_8_0" index="0" allow="pedestrian delivery bicycle" speed="3.65" length="4.67" shape="4864.53,2679.93 4865.76,2680.69 4866.18,2681.48 4865.81,2682.29 4864.64,2683.13"/>
    </edge>
    <edge id=":2225294613_0" function="internal">
        <lane id=":2225294613_0_0" index="0" disallow="tram rail_urban rail rail_electric rail_fast ship" speed="7.73" length="10.82" shape="6137.29,2680.61 6135.15,2679.42 6132.79,2679.20 6130.20,2679.95 6127.38,2681.67"/>
    </edge>
    <edge id=":2225294613_1" function="internal">
        <lane id=":2225294613_1_0" index="0" disallow="tram rail_urban rail rail_electric rail_fast ship" speed="13.89" length="14.91" shape="6137.29,2680.61 6134.37,2678.29 6131.37,2676.08 6128.31,2673.97 6125.19,2671.92"/>
    </edge>
    <edge id=":2225294613_2" function="internal">
        <lane id=":2225294613_2_0" index="0" disallow="tram rail_urban rail rail_electric rail_fast ship" speed="3.65" length="1.44" shape="6137.29,2680.61 6136.88,2679.23"/>
    </edge>
    <edge id=":2225294613_9" function="internal">
        <lane id=":2225294613_9_0" index="0" disallow="tram rail_urban rail rail_electric rail_fast ship" speed="3.65" length="3.23" shape="6136.88,2679.23 6137.08,2678.36 6137.90,2678.00 6139.33,2678.15"/>
    </edge>
    <edge id=":2225294613_3" function="internal">
        <lane id=":2225294613_3_0" index="0" disallow="tram rail_urban rail rail_electric rail_fast ship" speed="13.89" length="15.29" shape="6126.92,2669.23 6130.09,2671.31 6133.26,2673.51 6136.36,2675.79 6139.33,2678.15"/>
    </edge>
    <edge id=":2225294613_4" function="internal">
        <lane id=":2225294613_4_0" index="0" disallow="tram rail_urban rail rail_electric rail_fast ship" speed="7.52" length="4.57" shape="6126.92,2669.23 6130.38,2672.21"/>
    </edge>
    <edge id=":2225294613_5" function="internal">
        <lane id=":2225294613_5_0" index="0" disallow="tram rail_urban rail rail_electric rail_fast ship" speed="3.65" length="1.44" shape="6126.92,2669.23 6127.50,2670.55"/>
    </edge>
    <edge id=":2225294613_10" function="internal">
        <lane id=":2225294613_10_0" index="0" disallow="tram rail_urban rail rail_electric rail_fast ship" speed="7.52" length="11.19" shape="6130.38,2672.21 6131.61,2675.28 6130.61,2678.43 6127.38,2681.67"/>
    </edge>
    <edge id=":2225294613_11" function="internal">
        <lane id=":2225294613_11_0" index="0" disallow="tram rail_urban rail rail_electric rail_fast ship" speed="3.65" length="3.23" shape="6127.50,2670.55 6127.40,2671.44 6126.63,2671.89 6125.19,2671.92"/>
    </edge>
    <edge id=":2225294613_6" function="internal">
        <lane id=":2225294613_6_0" index="0" disallow="tram rail_urban rail rail_electric rail_fast ship" speed="5.88" length="9.11" shape="6125.46,2679.11 6127.33,2677.24 6127.90,2675.42 6127.19,2673.65 6125.19,2671.92"/>
    </edge>
    <edge id=":2225294613_7" function="internal">
        <lane id=":2225294613_7_0" index="0" disallow="tram rail_urban rail rail_electric rail_fast ship" speed="9.05" length="15.13" shape="6125.46,2679.11 6129.27,2676.83 6132.86,2675.91 6136.21,2676.34 6139.33,2678.15"/>
    </edge>
    <edge id=":2225294613_8" function="internal">
        <lane id=":2225294613_8_0" index="0" disallow="tram rail_urban rail rail_electric rail_fast ship" speed="3.65" length="4.67" shape="6125.46,2679.11 6126.90,2679.03 6127.70,2679.43 6127.86,2680.31 6127.38,2681.67"/>
    </edge>
    <edge id=":2225294615_0" function="internal">
        <lane id=":2225294615_0_0" index="0" disallow="tram rail_urban rail rail_electric rail_fast ship" speed="10.31" length="11.26" shape="6126.01,2682.70 6123.46,2684.91 6121.60,2687.16 6120.43,2689.46 6119.96,2691.81"/>
    </edge>
    <edge id=":2225294615_1" function="internal">
        <lane id=":2225294615_1_0" index="0" disallow="tram rail_urban rail rail_electric rail_fast ship" speed="7.66" length="15.10" shape="6126.01,2682.70 6122.26,2684.77 6118.99,2684.94 6116.21,2683.22 6113.90,2679.62"/>
    </edge>
    <edge id=":2225294615_2" function="internal">
        <lane id=":2225294615_2_0" index="0" disallow="tram rail_urban rail rail_electric rail_fast ship" speed="3.65" length="4.67" shape="6126.01,2682.70 6124.57,2682.79 6123.77,2682.39 6123.61,2681.51 6124.08,2680.15"/>
    </edge>
    <edge id=":2225294615_3" function="internal">
        <lane id=":2225294615_3_0" index="0" disallow="tram rail_urban rail rail_electric rail_fast ship" speed="6.08" length="9.06" shape="6116.82,2678.30 6118.20,2680.46 6119.87,2681.49 6121.83,2681.39 6124.08,2680.15"/>
    </edge>
    <edge id=":2225294615_4" function="internal">
        <lane id=":2225294615_4_0" index="0" disallow="tram rail_urban rail rail_electric rail_fast ship" speed="13.89" length="14.01" shape="6116.82,2678.30 6118.22,2681.63 6119.26,2684.89 6119.87,2688.23 6119.96,2691.81"/>
    </edge>
    <edge id=":2225294615_5" function="internal">
        <lane id=":2225294615_5_0" index="0" disallow="tram rail_urban rail rail_electric rail_fast ship" speed="3.65" length="1.44" shape="6116.82,2678.30 6116.58,2679.72"/>
    </edge>
    <edge id=":2225294615_9" function="internal">
        <lane id=":2225294615_9_0" index="0" disallow="tram rail_urban rail rail_electric rail_fast ship" speed="3.65" length="3.23" shape="6116.58,2679.72 6116.02,2680.41 6115.13,2680.38 6113.90,2679.62"/>
    </edge>
    <edge id=":2225294615_6" function="internal">
        <lane id=":2225294615_6_0" index="0" disallow="tram rail_urban rail rail_electric rail_fast ship" speed="13.89" length="12.50" shape="6116.76,2691.63 6116.72,2688.29 6116.21,2685.46 6115.26,2682.71 6113.90,2679.62"/>
    </edge>
    <edge id=":2225294615_7" function="internal">
        <lane id=":2225294615_7_0" index="0" disallow="tram rail_urban rail rail_electric rail_fast ship" speed="11.46" length="3.11" shape="6116.76,2691.63 6117.35,2688.58"/>
    </edge>
    <edge id=":2225294615_8" function="internal">
        <lane id=":2225294615_8_0" index="0" disallow="tram rail_urban rail rail_electric rail_fast ship" speed="3.65" length="1.44" shape="6116.76,2691.63 6117.63,2690.48"/>
    </edge>
    <edge id=":2225294615_10" function="internal">
        <lane id=":2225294615_10_0" index="0" disallow="tram rail_urban rail rail_electric rail_fast ship" speed="11.46" length="10.94" shape="6117.35,2688.58 6118.76,2685.65 6121.01,2682.84 6124.08,2680.15"/>
    </edge>
    <edge id=":2225294615_11" function="internal">
        <lane id=":2225294615_11_0" index="0" disallow="tram rail_urban rail rail_electric rail_fast ship" speed="3.65" length="3.23" shape="6117.63,2690.48 6118.45,2690.12 6119.22,2690.56 6119.96,2691.81"/>
    </edge>
    <edge id=":2225294623_0" function="internal">
        <lane id=":2225294623_0_0" index="0" disallow="tram rail_urban rail rail_electric rail_fast ship" speed="13.89" length="9.20" shape="5816.40,2738.82 5816.32,2729.62"/>
    </edge>
    <edge id=":2225294623_1" function="internal">
        <lane id=":2225294623_1_0" index="0" disallow="tram rail_urban rail rail_electric rail_fast ship" speed="13.89" length="9.18" shape="5819.52,2729.61 5819.60,2738.78"/>
    </edge>
    <edge id=":2225294627_0" function="internal">